/*--------------------------------*- C++ -*----------------------------------*\
| =========                 |                                                 |
| \\      /  F ield         | OpenFOAM: The Open Source CFD Toolbox           |
|  \\    /   O peration     | Version:  v2212                                 |
|   \\  /    A nd           | Website:  www.openfoam.com                      |
|    \\/     M anipulation  |                                                 |
\*---------------------------------------------------------------------------*/
FoamFile
{
    version     2.0;
    format      ascii;
    class       dictionary;
    object      controlDict;
}
// * * * * * * * * * * * * * * * * * * * * * * * * * * * * * * * * * * * * * //

application     interFoam;

startFrom       startTime;

startTime       0;

stopAt          endTime;

endTime         10;

deltaT          0.001;

writeControl    adjustableRunTime;

writeInterval   0.1;

purgeWrite      0;

writeFormat     ascii;

writePrecision  6;

writeCompression off;

timeFormat      general;

timePrecision   6;

runTimeModifiable yes;

adjustTimeStep  yes;

maxCo           0.5;

maxAlphaCo      0.5;

maxDeltaT       1;

// Function objects for monitoring
functions
{
    dropletTracking
    {
        type            particleTracking;
        libs            ("libparticleTracking.so");
        writeControl    writeTime;
        cloudName      droplets;
        sampleFrequency 1;
    }
    
    phaseMonitor
    {
        type            volFieldValue;
        libs            ("libfieldFunctionObjects.so");
        fields          (alpha.liquid);
        operation       volAverage;
        regionType      all;
        writeControl    timeStep;
        writeInterval   100;
    }
}; 